Version 4
SHEET 1 1012 680
WIRE 96 0 64 0
WIRE 192 0 160 0
WIRE 656 64 624 64
WIRE 832 64 736 64
WIRE 896 64 832 64
WIRE 1008 64 976 64
WIRE 544 80 400 80
WIRE 64 112 64 0
WIRE 96 112 64 112
WIRE 192 112 192 0
WIRE 192 112 176 112
WIRE 832 112 832 64
WIRE 512 128 464 128
WIRE 176 208 128 208
WIRE 464 208 464 128
WIRE 832 208 832 176
WIRE 832 208 768 208
WIRE 128 224 128 208
WIRE 400 224 400 80
WIRE 432 224 400 224
WIRE 768 224 768 208
WIRE -32 240 -64 240
WIRE 64 240 64 112
WIRE 64 240 48 240
WIRE 96 240 64 240
WIRE 544 240 544 80
WIRE 544 240 496 240
WIRE 624 240 624 64
WIRE 624 240 544 240
WIRE 832 240 832 208
WIRE 192 256 192 112
WIRE 192 256 160 256
WIRE 240 256 192 256
WIRE 368 256 320 256
WIRE 432 256 368 256
WIRE 96 272 64 272
WIRE 176 272 176 208
WIRE -64 288 -64 240
WIRE 64 288 64 272
WIRE 368 288 368 256
WIRE 464 304 464 272
WIRE 128 320 128 288
WIRE 624 352 624 240
WIRE 656 352 624 352
WIRE 832 352 832 320
WIRE 832 352 720 352
WIRE 928 352 832 352
WIRE 1008 352 1008 64
WIRE 1008 352 992 352
WIRE -64 384 -64 368
WIRE 368 384 368 352
WIRE 464 400 464 384
WIRE 480 400 464 400
WIRE 512 400 512 208
WIRE 512 400 480 400
WIRE 128 432 128 400
WIRE 160 432 128 432
WIRE 176 432 176 352
WIRE 176 432 160 432
WIRE 480 432 480 400
WIRE 160 464 160 432
FLAG -64 384 0
FLAG 64 288 0
FLAG 160 464 0
FLAG 368 384 0
FLAG 480 432 0
FLAG 768 224 0
SYMBOL res 192 96 R90
WINDOW 0 0 56 VBottom 2
WINDOW 3 32 56 VTop 2
SYMATTR InstName R1
SYMATTR Value 472.23k
SYMBOL res 64 224 R90
WINDOW 0 0 56 VBottom 2
WINDOW 3 32 56 VTop 2
SYMATTR InstName R2
SYMATTR Value 18.8k
SYMBOL res 336 240 R90
WINDOW 0 0 56 VBottom 2
WINDOW 3 32 56 VTop 2
SYMATTR InstName R3
SYMATTR Value 362.123k
SYMBOL TL084 128 256 R0
SYMATTR InstName U1
SYMBOL TL084 464 240 R0
SYMATTR InstName U2
SYMBOL cap 160 -16 R90
WINDOW 0 0 32 VBottom 2
WINDOW 3 32 32 VTop 2
SYMATTR InstName C1
SYMATTR Value 2n
SYMBOL cap 384 352 R180
WINDOW 0 24 56 Left 2
WINDOW 3 24 8 Left 2
SYMATTR InstName C2
SYMATTR Value 1n
SYMBOL voltage -64 272 R0
WINDOW 3 24 152 Left 2
WINDOW 123 24 124 Left 2
WINDOW 39 0 0 Left 0
SYMATTR Value SINE(0 1 1k)
SYMATTR Value2 AC 1
SYMATTR InstName V1
SYMBOL voltage 512 112 R0
WINDOW 123 0 0 Left 0
WINDOW 39 0 0 Left 0
SYMATTR InstName V2
SYMATTR Value 15
SYMBOL voltage 464 400 R180
WINDOW 0 24 96 Left 2
WINDOW 3 24 16 Left 2
WINDOW 123 0 0 Left 0
WINDOW 39 0 0 Left 0
SYMATTR InstName V3
SYMATTR Value 15
SYMBOL voltage 128 416 R180
WINDOW 0 24 96 Left 2
WINDOW 3 24 16 Left 2
WINDOW 123 0 0 Left 0
WINDOW 39 0 0 Left 0
SYMATTR InstName V4
SYMATTR Value 15
SYMBOL voltage 176 256 R0
WINDOW 123 0 0 Left 0
WINDOW 39 0 0 Left 0
SYMATTR InstName V6
SYMATTR Value 15
SYMBOL res 752 48 R90
WINDOW 0 0 56 VBottom 2
WINDOW 3 32 56 VTop 2
SYMATTR InstName R4
SYMATTR Value 28.937k
SYMBOL res 992 48 R90
WINDOW 0 0 56 VBottom 2
WINDOW 3 32 56 VTop 2
SYMATTR InstName R5
SYMATTR Value 28.937k
SYMBOL res 848 336 R180
WINDOW 0 36 76 Left 2
WINDOW 3 36 40 Left 2
SYMATTR InstName R6
SYMATTR Value 18.724k
SYMBOL cap 816 112 R0
SYMATTR InstName C3
SYMATTR Value 220n
SYMBOL cap 720 336 R90
WINDOW 0 0 32 VBottom 2
WINDOW 3 32 32 VTop 2
SYMATTR InstName C4
SYMATTR Value 100n
SYMBOL cap 992 336 R90
WINDOW 0 0 32 VBottom 2
WINDOW 3 32 32 VTop 2
SYMATTR InstName C5
SYMATTR Value 100n
TEXT 808 504 Left 2 !.ac dec 10 0.1 1k
