Version 4
SHEET 1 880 680
WIRE 176 -48 128 -48
WIRE 288 -48 240 -48
WIRE 128 64 128 -48
WIRE 176 64 128 64
WIRE 288 64 288 -48
WIRE 288 64 256 64
WIRE 256 128 192 128
WIRE 192 144 192 128
WIRE 16 160 -32 160
WIRE 128 160 128 64
WIRE 128 160 96 160
WIRE 160 160 128 160
WIRE 288 176 288 64
WIRE 288 176 224 176
WIRE 320 176 288 176
WIRE 432 176 400 176
WIRE 480 176 432 176
WIRE -32 192 -32 160
WIRE 160 192 128 192
WIRE 256 208 256 128
WIRE 128 224 128 192
WIRE 432 240 432 176
WIRE 192 256 192 208
WIRE -32 304 -32 272
WIRE 432 336 432 304
WIRE 192 352 192 336
WIRE 240 352 192 352
WIRE 256 352 256 288
WIRE 256 352 240 352
WIRE 240 368 240 352
FLAG 432 336 0
FLAG 128 224 0
FLAG 240 368 0
FLAG -32 304 0
FLAG 432 176 Vc
FLAG -32 160 Vin
SYMBOL res 272 48 R90
WINDOW 0 0 56 VBottom 2
WINDOW 3 32 56 VTop 2
SYMATTR InstName R1
SYMATTR Value 472.32k
SYMBOL res 416 160 R90
WINDOW 0 0 56 VBottom 2
WINDOW 3 32 56 VTop 2
SYMATTR InstName R2
SYMATTR Value 362.123k
SYMBOL res 112 144 R90
WINDOW 0 0 56 VBottom 2
WINDOW 3 32 56 VTop 2
SYMATTR InstName R3
SYMATTR Value 18.8k
SYMBOL cap 240 -64 R90
WINDOW 0 0 32 VBottom 2
WINDOW 3 32 32 VTop 2
SYMATTR InstName C1
SYMATTR Value 2n
SYMBOL cap 448 304 R180
WINDOW 0 24 56 Left 2
WINDOW 3 24 8 Left 2
SYMATTR InstName C2
SYMATTR Value 1n
SYMBOL TL084 192 176 R0
SYMATTR InstName U1
SYMBOL voltage -32 176 R0
WINDOW 123 24 124 Left 2
WINDOW 39 0 0 Left 0
SYMATTR Value2 AC 1
SYMATTR InstName V1
SYMATTR Value SINE(0 1 2k)
SYMBOL voltage 256 192 R0
WINDOW 123 0 0 Left 0
WINDOW 39 0 0 Left 0
SYMATTR InstName V2
SYMATTR Value 15
SYMBOL voltage 192 352 R180
WINDOW 0 24 96 Left 2
WINDOW 3 24 16 Left 2
WINDOW 123 0 0 Left 0
WINDOW 39 0 0 Left 0
SYMATTR InstName V3
SYMATTR Value 15
TEXT -64 392 Left 2 ;.tran 0 1 0.99 0.001
TEXT 568 296 Left 2 !.ac dec 10 1 10k
